10985889
  -OEChem-08062404433D

 28 29  0     0  0  0  0  0  0999 V2000
    1.5689   -2.8229   -0.4502 Br  0  0  0  0  0  0  0  0  0  0  0  0
   -1.5702   -2.8229    0.4617 Br  0  0  0  0  0  0  0  0  0  0  0  0
    1.6015    2.8447   -0.4280 Br  0  0  0  0  0  0  0  0  0  0  0  0
   -1.6027    2.8448    0.4393 Br  0  0  0  0  0  0  0  0  0  0  0  0
    4.9144    2.8727    0.1221 Br  0  0  0  0  0  0  0  0  0  0  0  0
   -4.9119    2.8726   -0.1326 Br  0  0  0  0  0  0  0  0  0  0  0  0
    4.8796   -2.8926    0.1083 Br  0  0  0  0  0  0  0  0  0  0  0  0
   -4.8771   -2.8926   -0.1185 Br  0  0  0  0  0  0  0  0  0  0  0  0
    6.5506   -0.0207    0.3908 Br  0  0  0  0  0  0  0  0  0  0  0  0
   -6.5462   -0.0207   -0.4121 Br  0  0  0  0  0  0  0  0  0  0  0  0
    0.4191    0.0178   -0.6341 C   0  0  0  0  0  0  0  0  0  0  0  0
   -0.4217    0.0177    0.6530 C   0  0  0  0  0  0  0  0  0  0  0  0
    1.9002    0.0088   -0.3876 C   0  0  0  0  0  0  0  0  0  0  0  0
   -1.9089    0.0087    0.3956 C   0  0  0  0  0  0  0  0  0  0  0  0
    2.5813   -1.2034   -0.2775 C   0  0  0  0  0  0  0  0  0  0  0  0
   -2.5815   -1.2034    0.2823 C   0  0  0  0  0  0  0  0  0  0  0  0
    2.5949    1.2125   -0.2675 C   0  0  0  0  0  0  0  0  0  0  0  0
   -2.5951    1.2125    0.2722 C   0  0  0  0  0  0  0  0  0  0  0  0
    3.9706    1.2039   -0.0372 C   0  0  0  0  0  0  0  0  0  0  0  0
   -3.9692    1.2038    0.0329 C   0  0  0  0  0  0  0  0  0  0  0  0
    3.9569   -1.2122   -0.0471 C   0  0  0  0  0  0  0  0  0  0  0  0
   -3.9555   -1.2121    0.0429 C   0  0  0  0  0  0  0  0  0  0  0  0
    4.6517   -0.0085    0.0728 C   0  0  0  0  0  0  0  0  0  0  0  0
   -4.6496   -0.0085   -0.0816 C   0  0  0  0  0  0  0  0  0  0  0  0
    0.1277    0.8546   -1.2780 H   0  0  0  0  0  0  0  0  0  0  0  0
    0.1190   -0.8111   -1.2843 H   0  0  0  0  0  0  0  0  0  0  0  0
   -0.1339    0.8554    1.2974 H   0  0  0  0  0  0  0  0  0  0  0  0
   -0.1252   -0.8120    1.3036 H   0  0  0  0  0  0  0  0  0  0  0  0
  1 15  1  0  0  0  0
  2 16  1  0  0  0  0
  3 17  1  0  0  0  0
  4 18  1  0  0  0  0
  5 19  1  0  0  0  0
  6 20  1  0  0  0  0
  7 21  1  0  0  0  0
  8 22  1  0  0  0  0
  9 23  1  0  0  0  0
 10 24  1  0  0  0  0
 11 12  1  0  0  0  0
 11 13  1  0  0  0  0
 11 25  1  0  0  0  0
 11 26  1  0  0  0  0
 12 14  1  0  0  0  0
 12 27  1  0  0  0  0
 12 28  1  0  0  0  0
 13 15  2  0  0  0  0
 13 17  1  0  0  0  0
 14 16  2  0  0  0  0
 14 18  1  0  0  0  0
 15 21  1  0  0  0  0
 16 22  1  0  0  0  0
 17 19  2  0  0  0  0
 18 20  2  0  0  0  0
 19 23  1  0  0  0  0
 20 24  1  0  0  0  0
 21 23  2  0  0  0  0
 22 24  2  0  0  0  0
M  END
> <PUBCHEM_COMPOUND_CID>
10985889

> <PUBCHEM_CONFORMER_RMSD>
0.6

> <PUBCHEM_CONFORMER_DIVERSEORDER>
1
2
3

> <PUBCHEM_MMFF94_PARTIAL_CHARGES>
24
1 -0.11
10 -0.11
11 0.14
12 0.14
13 -0.14
14 -0.14
15 0.11
16 0.11
17 0.11
18 0.11
19 0.11
2 -0.11
20 0.11
21 0.11
22 0.11
23 0.11
24 0.11
3 -0.11
4 -0.11
5 -0.11
6 -0.11
7 -0.11
8 -0.11
9 -0.11

> <PUBCHEM_EFFECTIVE_ROTOR_COUNT>
3

> <PUBCHEM_PHARMACOPHORE_FEATURES>
12
1 1 hydrophobe
1 10 hydrophobe
1 2 hydrophobe
1 3 hydrophobe
1 4 hydrophobe
1 5 hydrophobe
1 6 hydrophobe
1 7 hydrophobe
1 8 hydrophobe
1 9 hydrophobe
6 13 15 17 19 21 23 rings
6 14 16 18 20 22 24 rings

> <PUBCHEM_HEAVY_ATOM_COUNT>
24

> <PUBCHEM_ATOM_DEF_STEREO_COUNT>
0

> <PUBCHEM_ATOM_UDEF_STEREO_COUNT>
0

> <PUBCHEM_BOND_DEF_STEREO_COUNT>
0

> <PUBCHEM_BOND_UDEF_STEREO_COUNT>
0

> <PUBCHEM_ISOTOPIC_ATOM_COUNT>
0

> <PUBCHEM_COMPONENT_COUNT>
1

> <PUBCHEM_CACTVS_TAUTO_COUNT>
1

> <PUBCHEM_CONFORMER_ID>
00A7A1A100000001

> <PUBCHEM_MMFF94_ENERGY>
100.3612

> <PUBCHEM_FEATURE_SELFOVERLAP>
60.912

> <PUBCHEM_SHAPE_FINGERPRINT>
10411042 1 18122343747610519379
10595046 47 18411136978112593741
10693767 8 17984682675630893823
10835480 77 18411411778911112749
11370993 70 18410575084668814899
11405975 8 18410859819551648561
12107183 9 17978511927726100432
12166972 35 17968379043123503620
12403260 363 18410573989446424928
12633257 1 18267310828530017136
12788726 201 17345760672732947345
13167823 11 18410854360616969254
13402501 40 18410573989446424932
13533116 47 18412262822401256290
13583140 156 17846207877980970640
14341114 176 18339366271063590762
15183329 4 18408603656061759393
15196674 1 18410576188474987722
15420108 30 16973372366315057312
15927050 60 17406834463537354916
17492 89 18410577305193501578
17844677 252 18410863169657995529
1813 80 17022907826563046548
18681886 176 18341890844587900866
200 152 18202561761502081973
20028762 73 18272365326718511174
20715895 44 18194962942354253741
21033648 29 17846200168936635736
21065198 57 18410013221510495804
21267235 1 18410864260516196771
21279426 13 18265614277661457943
21315763 129 18410009961714831072
21315764 268 18335134276272578149
21421861 104 17678167210317609866
21709351 56 18410007758232935572
21859007 373 17604976027748812085
22393880 68 18341343240209724038
23402539 116 18411415142096897695
23557571 272 18202286883722082825
23559900 14 18411975888584403137
3004659 81 18333167276045849280
335352 9 18408886243419130262
34797466 226 17918002697467263388
350125 39 18411138077624260492
3545911 37 18410857659156899996
4073 2 18114749325542909714
4214541 1 18410013221573955205
5104073 3 18410860944848898395
5283173 99 18409163282180459573
59755656 215 18411141312420501846
59755656 520 16805321115582980275
67856867 119 18410011082754335204
9709674 26 18337399317533967555

> <PUBCHEM_SHAPE_MULTIPOLES>
553.33
15.08
4.24
0.78
0.05
0.01
0
0
-0.07
0
0
-0.01
0
0.02

> <PUBCHEM_SHAPE_SELFOVERLAP>
1035.503

> <PUBCHEM_SHAPE_VOLUME>
348.4

> <PUBCHEM_COORDINATE_TYPE>
2
5
10

$$$$
